/*--------------------------------*- C++ -*----------------------------------*\
| =========                 |                                                 |
| \\      /  F ield         | OpenFOAM: The Open Source CFD Toolbox           |
|  \\    /   O peration     | Version:  v1906                                 |
|   \\  /    A nd           | Web:      www.OpenFOAM.com                      |
|    \\/     M anipulation  |                                                 |
\*---------------------------------------------------------------------------*/
FoamFile
{
    version     2.0;
    format      ascii;
    class       dictionary;
    object      blockMeshDict;
}
// * * * * * * * * * * * * * * * * * * * * * * * * * * * * * * * * * * * * * //

convertToMeters   1;

vertices
(
    (-0.007 -0.001 -0.024)
    (0.001 -0.001 -0.024)
    (0.001 0.007 -0.024)
    (-0.007 0.007 -0.024)
    (-0.007 -0.001 0.001)
    (0.001 -0.001 0.001)
    (0.001 0.007 0.001)
    (-0.007 0.007 0.001)
);

blocks
(
    hex (0 1 2 3 4 5 6 7)
    (160 160 500)
    simpleGrading (1 1 1)
);

edges
(
);

boundary
(
    bound1
    {
        type wall;
        faces
        (
            (1 5 4 0)
        );
    }
    bound2
    {
        type empty;
        faces
        (
            (0 4 7 3)
            (2 6 5 1)
        );
    }
    bound3
    {
        type patch;
        faces
        (
            (4 5 6 7)
        );
    }
    bound4
    {
        type patch;
        faces
        (
            (0 3 2 1)
            (3 7 6 2)
        );
    }
);

// ************************************************************************* //
