/*--------------------------------*- C++ -*----------------------------------*\
| =========                 |                                                 |
| \\      /  F ield         | OpenFOAM: The Open Source CFD Toolbox           |
|  \\    /   O peration     | Version:  2.2.0                                 |
|   \\  /    A nd           | Web:      www.OpenFOAM.org                      |
|    \\/     M anipulation  |                                                 |
\*---------------------------------------------------------------------------*/
FoamFile
{
    version     2.0;
    format      ascii;
    class       dictionary;
    object      snappyHexMeshDict;
}
// * * * * * * * * * * * * * * * * * * * * * * * * * * * * * * * * * * * * * //

// Which of the steps to run
castellatedMesh true;   // make basic mesh ?
snap            true;   // decide to snap back to surface ?
addLayers       false;   // decide to add viscous layers ?


geometry // Load in STL files here
{
	inlet.stl {type triSurfaceMesh; name inlet;}
	outlet.stl {type triSurfaceMesh; name outlet;}
	wall_channel.stl {type triSurfaceMesh; name wall_channel;}
	wall_electrode.stl {type triSurfaceMesh; name wall_electrode;}
	channel_electrode.stl {type triSurfaceMesh; name channel_electrode;}
	refinementBox {type searchableBox; min (0.0 0.0 -0.02286); max (0.0004 0.0055 0);}
};

castellatedMeshControls
{
    maxLocalCells 2000000;  //max cells per CPU core
    maxGlobalCells 4000000; //max cells to use before mesh deletion step
    minRefinementCells 10;  //was 0 - zero means no bad cells are allowed during refinement stages
    maxLoadUnbalance 0.10;
    nCellsBetweenLevels 1;  // expansion factor between each high & low refinement zone

    // Explicit feature edge refinement
    // ~~~~~~~~~~~~~~~~~~~~~~~~~~~~~~~~

    features // taken from STL from each .eMesh file created by "SurfaceFeatureExtract" command
    (
        {file "inlet.eMesh"; level 3;} // was 3 
        {file "outlet.eMesh"; level 3;} // was 3
        {file "wall_channel.eMesh"; level 3;} // was 3
        {file "wall_electrode.eMesh"; level 3;} //was 3
    );

    // Surface based refinement
    // ~~~~~~~~~~~~~~~~~~~~~~~~

    refinementSurfaces // Surface-wise min and max refinement level
    {
	inlet {level (0 0);}
        outlet {level (0 0);} 
	wall_channel {level (1 3);} // was 4 4
	wall_electrode {level (1 3);} // was 4 4
    }  


    resolveFeatureAngle 80;  // Resolve sharp angles // Default 30
    refinementRegions        // In descending levels of fine-ness
    //{refinementBox {mode inside; levels ((1.0 1));}
    {refinementBox {mode distance; levels ((0.00004 2) (0.0002 1));}
     wall_channel {mode distance; levels ((0.00012 1));}} // was ((0.001 4) (0.003 3) (0.01 2))
    locationInMesh (1e-5 1e-5 -1e-5);  //to decide which side of mesh to keep **
    allowFreeStandingZoneFaces true;
}


// Settings for the snapping.
snapControls
{
    nSmoothPatch 3;
    tolerance 2.0;
    nSolveIter 30;
    nRelaxIter 5;
    nFeatureSnapIter 15; // default is 10
    
// New settings from openfoam 2.2 onwards for SHMesh

implicitFeatureSnap true; // default is false - detects without doing surfaceFeatureExtract
explicitFeatureSnap true; // default is true
multiRegionFeatureSnap false; // deafault is false - detects features between multiple surfaces
}

// Settings for the layer addition.
addLayersControls //add the PATCH names from inside the STL file so STLpatchName_insideSTLName 
{
    relativeSizes true; // :was true
    layers
    {
	wall_electrode
                {nSurfaceLayers 3;} // was 3
        wall_channel
                {nSurfaceLayers 3;} // was 3
        inlet
                {nSurfaceLayers 3;} // was 3    
    	outlet
                {nSurfaceLayers 3;} // was 3
    }

    expansionRatio 1.3;
    finalLayerThickness 0.5; // relativeSizes true, relative size to the background space (dS), finalLayerThickness = dl/dS
    //finalLayerThickness 0.00001; //was 0.00016
    minThickness 0.000001; //was 0.00008
    nGrow 0; // was 1 


    // Advanced settings

    featureAngle 180; // was 70 //- When not to extrude surface. 0 is flat, 90 is right angle.
    nRelaxIter 3;  //- Max# of snapping relaxation iter. Should stop before upon reaching a correct mesh.
    nSmoothSurfaceNormals 3;  // Number of smoothing iterations of surface normals
    nSmoothNormals 3; // Number of smoothing iterations of interior mesh movement direction
    nSmoothThickness 10;  // Smooth layer thickness over surface patches
    maxFaceThicknessRatio 0.5; // Stop layer growth on highly warped cells
    maxThicknessToMedialRatio 0.3; // Reduce layer growth where ratio thickness to medial distance is large
    minMedianAxisAngle 130;  // Angle used to pick up medial axis points
    nBufferCellsNoExtrude 0;   // Create buffer region for new layer terminations
    nLayerIter 50; // Overall max number of layer addition iterations
}



// Generic mesh quality settings. At any undoable phase these determine
// where to undo.
meshQualityControls
{
    maxNonOrtho 65;
    maxBoundarySkewness 20;
    maxInternalSkewness 4;
    maxConcave 80;
    minFlatness 0.5;
    minVol 1e-18;// was 1-13
    minTetQuality 1e-9;
    minArea -1;
    minTwist 0.02;
    minDeterminant 0.001;
    minFaceWeight 0.02;
    minVolRatio 0.01;
    minTriangleTwist -1;

    // Advanced

    nSmoothScale 4;
    errorReduction 0.75;
}

// Advanced

debug 0;


// Merge tolerance. Is fraction of overall bounding box of initial mesh.
// Note: the write tolerance needs to be higher than this.
mergeTolerance 1E-6;


// ************************************************************************* //
