/*--------------------------------*- C++ -*----------------------------------*\
| =========                 |                                                 |
| \\      /  F ield         | OpenFOAM: The Open Source CFD Toolbox           |
|  \\    /   O peration     | Version:  v1906                                 |
|   \\  /    A nd           | Web:      www.OpenFOAM.com                      |
|    \\/     M anipulation  |                                                 |
\*---------------------------------------------------------------------------*/
FoamFile
{
    version     2.0;
    format      ascii;
    class       volVectorField;
    object      U;
}
// * * * * * * * * * * * * * * * * * * * * * * * * * * * * * * * * * * * * * //

dimensions      [0 1 -1 0 0 0 0];

internalField   uniform (0 0 0);

boundaryField
{
    // #includeEtc "caseDicts/setConstraintTypes"
    
    inlet
    {
        type            fixedValue;
        value           uniform (0 0 1.67); // $internalField;
    }

    // Electrode inlet, no flow
    e_in_wall
    {
        type            noSlip;
    }

    // Electrode outlet, no flow
    e_out_wall
    {
        type            noSlip;
    }

    outlet
    {
        //type            pressureInletOutletVelocity;
        //value           $internalField;
        type              zeroGradient;
    }

    top
    {
        type            noSlip;
    }

    bottom
    {
        type            noSlip;
    }

    front
    {
        type            noSlip;
    }

    back
    {
        type            noSlip;
    }

}

// ************************************************************************* //
