/*--------------------------------*- C++ -*----------------------------------*\
| =========                 |                                                 |
| \\      /  F ield         | OpenFOAM: The Open Source CFD Toolbox           |
|  \\    /   O peration     | Version:  v1906                                 |
|   \\  /    A nd           | Web:      www.OpenFOAM.com                      |
|    \\/     M anipulation  |                                                 |
\*---------------------------------------------------------------------------*/
FoamFile
{
    version     2.0;
    format      ascii;
    class       dictionary;
    object      blockMeshDict;
}
// * * * * * * * * * * * * * * * * * * * * * * * * * * * * * * * * * * * * * //

convertToMeters   0.001;

vertices
(
    // Channel
    (0 0 0)  // 0
    (1 0 0) // 1
    (1 1 0) // 2
    (0 1 0) // 3
    (0 0 23) // 4
    (1 0 23) // 5
    (1 1 23) // 6
    (0 1 23) // 7
    
    // Channel only, shares vertices with electrode
    (1.4 0 0) // 8
    (1.4 1 0) // 9
    (1.4 0 23) // 10
    (1.4 1 23) // 11
);

blocks
(
    // Channel
    hex (0 1 2 3 4 5 6 7) (4 20 230) simpleGrading (1 1 1)
    // Electrode
    hex (1 8 9 2 5 10 11 6) (16 20 230) simpleGrading (1 1 1)
    );

boundary
(
    inlet
    {
        type patch;
        faces
        (
            (0 3 2 1)
	);
    }

    // Electrode inlet wall
    e_in_wall
    {
	type wall;
	faces
	(
	    (1 2 9 8)
	);
    }

    outlet
    {
        type patch;
        faces
        (
            (4 5 6 7)
        );
    }

    // Electrode outlet wall
    e_out_wall
    {
	type patch;
	faces
	(
	    (5 10 11 6)
	);
    }

    top
    {
        type wall;
        faces
        (
	    (0 4 7 3)
        );
    }

    bottom
    {
        type wall;
        faces
        (
	    // Membrane. Interface to be treated as defaultface
            (8 9 11 10)   
        );
    }

    front
    {
        type wall;
        faces
        (
	    // Channel front
            (0 1 5 4)
	    (1 8 10 5)
        );
    }

    back
    {
        type wall;
        faces
        (
	    (3 7 6 2)
	    (2 6 11 9)
        );
    }
);

// ************************************************************************* //
