/*--------------------------------*- C++ -*----------------------------------*\
| =========                 |                                                 |
| \\      /  F ield         | OpenFOAM: The Open Source CFD Toolbox           |
|  \\    /   O peration     | Version:  v1906                                 |
|   \\  /    A nd           | Web:      www.OpenFOAM.com                      |
|    \\/     M anipulation  |                                                 |
\*---------------------------------------------------------------------------*/
FoamFile
{
    version     2.0;
    format      ascii;
    class       dictionary;
    object      blockMeshDict;
}
// * * * * * * * * * * * * * * * * * * * * * * * * * * * * * * * * * * * * * //

convertToMeters   0.001;

vertices
(
    (0 0 0)
    (1 0 0)
    (1 1 0)
    (0 1 0)
    (0 0 23)
    (1 0 23)
    (1 1 23)
    (0 1 23)
);

blocks
(
    hex (0 1 2 3 4 5 6 7) (20 20 230) simpleGrading (1 1 1)
);

boundary
(
    inlet
    {
        type patch;
        faces
        (
            (0 3 2 1)
        );
    }

    outlet
    {
        type patch;
        faces
        (
            (4 5 6 7)
        );
    }

    top
    {
        type wall;
        faces
        (
            (3 7 6 2)
        );
    }

    bottom
    {
        type wall;
        faces
        (

            (1 5 4 0)   
        );
    }

    front
    {
        type wall;
        faces
        (
            (0 4 7 3)
        );
    }

    back
    {
        type wall;
        faces
        (
            (1 2 6 5)
        );
    }
);

// ************************************************************************* //
