/*--------------------------------*- C++ -*----------------------------------*\
| =========                 |                                                 |
| \\      /  F ield         | OpenFOAM: The Open Source CFD Toolbox           |
|  \\    /   O peration     | Version:  v1906                                 |
|   \\  /    A nd           | Web:      www.OpenFOAM.com                      |
|    \\/     M anipulation  |                                                 |
\*---------------------------------------------------------------------------*/
FoamFile
{
    version     2.0;
    format      ascii;
    class       dictionary;
    location    "constant";
    object      fvOptions;
}
// * * * * * * * * * * * * * * * * * * * * * * * * * * * * * * * * * * * * * //

porosity1
{
    type            explicitPorositySource;

    explicitPorositySourceCoeffs
    {
        selectionMode   cellZone;

        cellZone        porousBlockage;

        type            DarcyForchheimer;

        // D 100;  // Very little blockage
        // D 200;  // Some blockage but steady flow
        // D 500;  // Slight waviness in the far wake
        D 1e10; //3.703e5; // Fully shedding behavior (1/rho) * (mu/k)

        d   ($D $D $D);
        f   (0 0 0);

        coordinateSystem
        {
            origin  (0.0005 0.0005 0.00105);

            rotation
            {
                type    none;
            }
        }
    }
}


// ************************************************************************* //
