/*--------------------------------*- C++ -*----------------------------------*\
| =========                 |                                                 |
| \\      /  F ield         | OpenFOAM: The Open Source CFD Toolbox           |
|  \\    /   O peration     | Version:  v2106                                 |
|   \\  /    A nd           | Website:  www.openfoam.com                      |
|    \\/     M anipulation  |                                                 |
\*---------------------------------------------------------------------------*/
FoamFile
{
    version     2.0;
    format      ascii;
    arch        "LSB;label=32;scalar=64";
    class       featureEdgeMesh;
    location    "constant/triSurface";
    object      inlet.eMesh;
}
// * * * * * * * * * * * * * * * * * * * * * * * * * * * * * * * * * * * * * //


// points:

47
(
(-0.0060000001 0.0015 -0.00050000002)
(-0.0060000001 0.001493308 -0.00059996522)
(-0.0060000001 0.001473352 -0.00069814658)
(-0.0060000001 0.001440487 -0.00079279201)
(-0.0060000001 0.001395301 -0.00088221248)
(-0.0060000001 0.001338599 -0.00096481241)
(-0.0060000001 0.001271394 -0.001039118)
(-0.0060000001 0.001194885 -0.001103803)
(-0.0060000001 0.001110436 -0.001157712)
(-0.0060000001 0.001019556 -0.001199885)
(-0.0060000001 0.00092386513 -0.001229569)
(-0.0060000001 0.00082507171 -0.001246233)
(-0.0060000001 0.0007249387 -0.001249581)
(-0.0060000001 0.0006252529 -0.001239553)
(-0.0060000001 0.00052779331 -0.001216327)
(-0.0060000001 0.00043429891 -0.001180318)
(-0.0060000001 0.0003464382 -0.001132169)
(-0.0060000001 0.00026577909 -0.001072739)
(-0.0060000001 0.0001937609 -0.001003089)
(-0.0060000001 0.0001316688 -0.0009244603)
(-0.0060000001 8.0610807e-05 -0.00083825761)
(-0.0060000001 4.1498119e-05 -0.0007460186)
(-0.0060000001 1.502866e-05 -0.00064938952)
(-0.0060000001 1.6747809e-06 -0.00055009453)
(-0.0060000001 1.6747809e-06 -0.00044990549)
(-0.0060000001 1.502866e-05 -0.0003506105)
(-0.0060000001 4.1498119e-05 -0.00025398139)
(-0.0060000001 8.0610807e-05 -0.0001617424)
(-0.0060000001 0.0001316688 -7.5539683e-05)
(-0.0060000001 0.0001937609 3.0885481e-06)
(-0.0060000001 0.00026577909 7.2739153e-05)
(-0.0060000001 0.0003464382 0.0001321692)
(-0.0060000001 0.00043429891 0.00018031819)
(-0.0060000001 0.00052779331 0.00021632689)
(-0.0060000001 0.0006252529 0.0002395527)
(-0.0060000001 0.0007249387 0.00024958121)
(-0.0060000001 0.00082507171 0.00024623339)
(-0.0060000001 0.00092386513 0.00022956901)
(-0.0060000001 0.001019556 0.0001998855)
(-0.0060000001 0.001110436 0.00015771241)
(-0.0060000001 0.001194885 0.0001038025)
(-0.0060000001 0.001271394 3.911776e-05)
(-0.0060000001 0.001338599 -3.5187579e-05)
(-0.0060000001 0.001395301 -0.0001177875)
(-0.0060000001 0.001440487 -0.000207208)
(-0.0060000001 0.001473352 -0.0003018534)
(-0.0060000001 0.001493308 -0.0004000348)
)


// edges:

47
(
(0 1)
(2 3)
(4 5)
(6 7)
(8 9)
(10 11)
(12 13)
(14 15)
(16 17)
(18 19)
(20 21)
(22 23)
(24 25)
(26 27)
(28 29)
(30 31)
(32 33)
(34 35)
(36 37)
(38 39)
(40 41)
(42 43)
(44 45)
(46 0)
(1 2)
(3 4)
(5 6)
(7 8)
(9 10)
(11 12)
(13 14)
(15 16)
(17 18)
(19 20)
(21 22)
(23 24)
(25 26)
(27 28)
(29 30)
(31 32)
(33 34)
(35 36)
(37 38)
(39 40)
(41 42)
(43 44)
(45 46)
)

// * * * * * * * * * * * * * * * * * * * * * * * * * * * * * * * * * * * * * //


// ************************************************************************* //
