/*--------------------------------*- C++ -*----------------------------------*\
| =========                 |                                                 |
| \\      /  F ield         | OpenFOAM: The Open Source CFD Toolbox           |
|  \\    /   O peration     | Version:  v2106                                 |
|   \\  /    A nd           | Website:  www.openfoam.com                      |
|    \\/     M anipulation  |                                                 |
\*---------------------------------------------------------------------------*/
FoamFile
{
    version     2.0;
    format      ascii;
    arch        "LSB;label=32;scalar=64";
    class       featureEdgeMesh;
    location    "constant/triSurface";
    object      outlet.eMesh;
}
// * * * * * * * * * * * * * * * * * * * * * * * * * * * * * * * * * * * * * //


// points:

47
(
(-0.0060000001 0.0055 -0.022360001)
(-0.0060000001 0.005493308 -0.022459971)
(-0.0060000001 0.005473352 -0.022558151)
(-0.0060000001 0.0054404871 -0.02265279)
(-0.0060000001 0.0053953012 -0.02274221)
(-0.0060000001 0.0053385999 -0.022824811)
(-0.0060000001 0.0052713938 -0.022899119)
(-0.0060000001 0.0051948852 -0.0229638)
(-0.0060000001 0.0051104361 -0.02301771)
(-0.0060000001 0.0050195558 -0.02305989)
(-0.0060000001 0.0049238652 -0.023089571)
(-0.0060000001 0.0048250719 -0.02310623)
(-0.0060000001 0.0047249389 -0.023109579)
(-0.0060000001 0.0046252529 -0.023099549)
(-0.0060000001 0.0045277928 -0.023076329)
(-0.0060000001 0.0044342992 -0.023040321)
(-0.0060000001 0.0043464382 -0.022992169)
(-0.0060000001 0.0042657792 -0.02293274)
(-0.0060000001 0.0041937609 -0.02286309)
(-0.0060000001 0.0041316692 -0.02278446)
(-0.0060000001 0.0040806108 -0.022698261)
(-0.0060000001 0.0040414981 -0.022606021)
(-0.0060000001 0.0040150289 -0.02250939)
(-0.0060000001 0.0040016752 -0.022410089)
(-0.0060000001 0.0040016752 -0.022309911)
(-0.0060000001 0.0040150289 -0.022210609)
(-0.0060000001 0.0040414981 -0.022113981)
(-0.0060000001 0.0040806108 -0.022021741)
(-0.0060000001 0.0041316692 -0.021935539)
(-0.0060000001 0.0041937609 -0.02185691)
(-0.0060000001 0.0042657792 -0.02178726)
(-0.0060000001 0.0043464382 -0.02172783)
(-0.0060000001 0.0044342992 -0.021679681)
(-0.0060000001 0.0045277928 -0.02164367)
(-0.0060000001 0.0046252529 -0.021620451)
(-0.0060000001 0.0047249389 -0.02161042)
(-0.0060000001 0.0048250719 -0.021613769)
(-0.0060000001 0.0049238652 -0.021630431)
(-0.0060000001 0.0050195558 -0.02166011)
(-0.0060000001 0.0051104361 -0.02170229)
(-0.0060000001 0.0051948852 -0.0217562)
(-0.0060000001 0.0052713938 -0.02182088)
(-0.0060000001 0.0053385999 -0.021895191)
(-0.0060000001 0.0053953012 -0.02197779)
(-0.0060000001 0.0054404871 -0.02206721)
(-0.0060000001 0.005473352 -0.022161851)
(-0.0060000001 0.005493308 -0.022260031)
)


// edges:

47
(
(0 1)
(2 3)
(4 5)
(6 7)
(8 9)
(10 11)
(12 13)
(14 15)
(16 17)
(18 19)
(20 21)
(22 23)
(24 25)
(26 27)
(28 29)
(30 31)
(32 33)
(34 35)
(36 37)
(38 39)
(40 41)
(42 43)
(44 45)
(46 0)
(1 2)
(3 4)
(5 6)
(7 8)
(9 10)
(11 12)
(13 14)
(15 16)
(17 18)
(19 20)
(21 22)
(23 24)
(25 26)
(27 28)
(29 30)
(31 32)
(33 34)
(35 36)
(37 38)
(39 40)
(41 42)
(43 44)
(45 46)
)

// * * * * * * * * * * * * * * * * * * * * * * * * * * * * * * * * * * * * * //


// ************************************************************************* //
