/*--------------------------------*- C++ -*----------------------------------*\
| =========                 |                                                 |
| \\      /  F ield         | OpenFOAM: The Open Source CFD Toolbox           |
|  \\    /   O peration     | Version:  v2106                                 |
|   \\  /    A nd           | Website:  www.openfoam.com                      |
|    \\/     M anipulation  |                                                 |
\*---------------------------------------------------------------------------*/
FoamFile
{
    version     2.0;
    format      ascii;
    arch        "LSB;label=32;scalar=64";
    class       featureEdgeMesh;
    location    "constant/triSurface";
    object      wall_electrode.eMesh;
}
// * * * * * * * * * * * * * * * * * * * * * * * * * * * * * * * * * * * * * //


// points:

2552
(
(0 0 0)
(0.00039999999 0 0)
(0 0 -0.02286)
(0.00039999999 0 -0.02286)
(0.00039999999 0.0055 0)
(0.00039999999 0.0055 -0.02286)
(0 0.0055 0)
(0 0.0055 -0.02286)
(0 0.0022499999 -0.00025000001)
(0 0.0022499999 -0.021609999)
(0 0.00125 -0.021609999)
(0 0.00125 -0.00025000001)
(0 0.0002499999 -0.00025000001)
(0 0.0002499999 -0.022609999)
(0 0.0032500001 -0.022609999)
(0 0.0032500001 -0.00125)
(0 0.0042500002 -0.00125)
(0 0.0042500002 -0.022609999)
(0 0.0052499999 -0.022609999)
(0 0.0052499999 -0.00025000001)
(0 0.0022499999 -0.00034981311)
(0 0.0022499999 -0.00044962621)
(0 0.0022499999 -0.00054943928)
(0 0.0022499999 -0.00064925232)
(0 0.0022499999 -0.00074906542)
(0 0.0022499999 -0.00084887852)
(0 0.0022499999 -0.00094869162)
(0 0.0022499999 -0.001048505)
(0 0.0022499999 -0.0011483181)
(0 0.0022499999 -0.001248131)
(0 0.0022499999 -0.001347944)
(0 0.0022499999 -0.001447757)
(0 0.0022499999 -0.00154757)
(0 0.0022499999 -0.001647383)
(0 0.0022499999 -0.001747196)
(0 0.0022499999 -0.0018470091)
(0 0.0022499999 -0.001946822)
(0 0.0022499999 -0.0020466361)
(0 0.0022499999 -0.0021464489)
(0 0.0022499999 -0.002246262)
(0 0.0022499999 -0.0023460749)
(0 0.0022499999 -0.002445888)
(0 0.0022499999 -0.0025457011)
(0 0.0022499999 -0.002645514)
(0 0.0022499999 -0.0027453271)
(0 0.0022499999 -0.0028451399)
(0 0.0022499999 -0.002944953)
(0 0.0022499999 -0.0030447659)
(0 0.0022499999 -0.003144579)
(0 0.0022499999 -0.003244393)
(0 0.0022499999 -0.0033442059)
(0 0.0022499999 -0.003444019)
(0 0.0022499999 -0.0035438321)
(0 0.0022499999 -0.003643645)
(0 0.0022499999 -0.0037434581)
(0 0.0022499999 -0.0038432709)
(0 0.0022499999 -0.0039430838)
(0 0.0022499999 -0.0040428969)
(0 0.0022499999 -0.00414271)
(0 0.0022499999 -0.0042425231)
(0 0.0022499999 -0.0043423362)
(0 0.0022499999 -0.0044421498)
(0 0.0022499999 -0.0045419629)
(0 0.0022499999 -0.004641776)
(0 0.0022499999 -0.0047415891)
(0 0.0022499999 -0.0048414022)
(0 0.0022499999 -0.0049412148)
(0 0.0022499999 -0.0050410279)
(0 0.0022499999 -0.005140841)
(0 0.0022499999 -0.0052406541)
(0 0.0022499999 -0.0053404672)
(0 0.0022499999 -0.0054402798)
(0 0.0022499999 -0.0055400929)
(0 0.0022499999 -0.005639907)
(0 0.0022499999 -0.0057397201)
(0 0.0022499999 -0.0058395332)
(0 0.0022499999 -0.0059393458)
(0 0.0022499999 -0.0060391589)
(0 0.0022499999 -0.006138972)
(0 0.0022499999 -0.0062387851)
(0 0.0022499999 -0.0063385982)
(0 0.0022499999 -0.0064384108)
(0 0.0022499999 -0.0065382239)
(0 0.0022499999 -0.006638037)
(0 0.0022499999 -0.0067378501)
(0 0.0022499999 -0.0068376642)
(0 0.0022499999 -0.0069374768)
(0 0.0022499999 -0.0070372899)
(0 0.0022499999 -0.007137103)
(0 0.0022499999 -0.0072369161)
(0 0.0022499999 -0.0073367292)
(0 0.0022499999 -0.0074365418)
(0 0.0022499999 -0.0075363549)
(0 0.0022499999 -0.007636168)
(0 0.0022499999 -0.0077359811)
(0 0.0022499999 -0.0078357942)
(0 0.0022499999 -0.0079356069)
(0 0.0022499999 -0.0080354214)
(0 0.0022499999 -0.008135234)
(0 0.0022499999 -0.0082350466)
(0 0.0022499999 -0.0083348602)
(0 0.0022499999 -0.0084346728)
(0 0.0022499999 -0.0085344864)
(0 0.0022499999 -0.008634299)
(0 0.0022499999 -0.0087341117)
(0 0.0022499999 -0.0088339252)
(0 0.0022499999 -0.0089337379)
(0 0.0022499999 -0.0090335514)
(0 0.0022499999 -0.0091333641)
(0 0.0022499999 -0.0092331776)
(0 0.0022499999 -0.0093329912)
(0 0.0022499999 -0.0094328038)
(0 0.0022499999 -0.0095326174)
(0 0.0022499999 -0.00963243)
(0 0.0022499999 -0.0097322427)
(0 0.0022499999 -0.0098320562)
(0 0.0022499999 -0.0099318689)
(0 0.0022499999 -0.01003168)
(0 0.0022499999 -0.0101315)
(0 0.0022499999 -0.01023131)
(0 0.0022499999 -0.01033112)
(0 0.0022499999 -0.01043093)
(0 0.0022499999 -0.01053075)
(0 0.0022499999 -0.01063056)
(0 0.0022499999 -0.01073037)
(0 0.0022499999 -0.01083019)
(0 0.0022499999 -0.01093)
(0 0.0022499999 -0.01102981)
(0 0.0022499999 -0.01112963)
(0 0.0022499999 -0.01122944)
(0 0.0022499999 -0.01132925)
(0 0.0022499999 -0.01142907)
(0 0.0022499999 -0.01152888)
(0 0.0022499999 -0.01162869)
(0 0.0022499999 -0.0117285)
(0 0.0022499999 -0.01182832)
(0 0.0022499999 -0.01192813)
(0 0.0022499999 -0.01202794)
(0 0.0022499999 -0.01212776)
(0 0.0022499999 -0.01222757)
(0 0.0022499999 -0.01232738)
(0 0.0022499999 -0.0124272)
(0 0.0022499999 -0.01252701)
(0 0.0022499999 -0.01262682)
(0 0.0022499999 -0.01272664)
(0 0.0022499999 -0.01282645)
(0 0.0022499999 -0.01292626)
(0 0.0022499999 -0.01302607)
(0 0.0022499999 -0.01312589)
(0 0.0022499999 -0.0132257)
(0 0.0022499999 -0.01332551)
(0 0.0022499999 -0.01342533)
(0 0.0022499999 -0.01352514)
(0 0.0022499999 -0.01362495)
(0 0.0022499999 -0.01372477)
(0 0.0022499999 -0.01382458)
(0 0.0022499999 -0.01392439)
(0 0.0022499999 -0.01402421)
(0 0.0022499999 -0.01412402)
(0 0.0022499999 -0.01422383)
(0 0.0022499999 -0.01432364)
(0 0.0022499999 -0.01442346)
(0 0.0022499999 -0.01452327)
(0 0.0022499999 -0.01462308)
(0 0.0022499999 -0.0147229)
(0 0.0022499999 -0.01482271)
(0 0.0022499999 -0.01492252)
(0 0.0022499999 -0.01502234)
(0 0.0022499999 -0.01512215)
(0 0.0022499999 -0.01522196)
(0 0.0022499999 -0.01532178)
(0 0.0022499999 -0.01542159)
(0 0.0022499999 -0.0155214)
(0 0.0022499999 -0.01562121)
(0 0.0022499999 -0.015721031)
(0 0.0022499999 -0.01582084)
(0 0.0022499999 -0.01592065)
(0 0.0022499999 -0.016020469)
(0 0.0022499999 -0.016120279)
(0 0.0022499999 -0.016220091)
(0 0.0022499999 -0.01631991)
(0 0.0022499999 -0.01641972)
(0 0.0022499999 -0.01651953)
(0 0.0022499999 -0.016619351)
(0 0.0022499999 -0.016719161)
(0 0.0022499999 -0.01681897)
(0 0.0022499999 -0.01691879)
(0 0.0022499999 -0.017018599)
(0 0.0022499999 -0.017118409)
(0 0.0022499999 -0.017218219)
(0 0.0022499999 -0.01731804)
(0 0.0022499999 -0.01741785)
(0 0.0022499999 -0.01751766)
(0 0.0022499999 -0.017617481)
(0 0.0022499999 -0.017717291)
(0 0.0022499999 -0.017817101)
(0 0.0022499999 -0.01791692)
(0 0.0022499999 -0.01801673)
(0 0.0022499999 -0.018116539)
(0 0.0022499999 -0.01821636)
(0 0.0022499999 -0.01831617)
(0 0.0022499999 -0.01841598)
(0 0.0022499999 -0.01851579)
(0 0.0022499999 -0.018615611)
(0 0.0022499999 -0.018715421)
(0 0.0022499999 -0.018815231)
(0 0.0022499999 -0.01891505)
(0 0.0022499999 -0.01901486)
(0 0.0022499999 -0.019114669)
(0 0.0022499999 -0.01921449)
(0 0.0022499999 -0.0193143)
(0 0.0022499999 -0.01941411)
(0 0.0022499999 -0.019513929)
(0 0.0022499999 -0.019613739)
(0 0.0022499999 -0.019713551)
(0 0.0022499999 -0.019813361)
(0 0.0022499999 -0.01991318)
(0 0.0022499999 -0.02001299)
(0 0.0022499999 -0.020112799)
(0 0.0022499999 -0.02021262)
(0 0.0022499999 -0.02031243)
(0 0.0022499999 -0.02041224)
(0 0.0022499999 -0.020512059)
(0 0.0022499999 -0.020611869)
(0 0.0022499999 -0.020711681)
(0 0.0022499999 -0.0208115)
(0 0.0022499999 -0.02091131)
(0 0.0022499999 -0.02101112)
(0 0.0022499999 -0.02111093)
(0 0.0022499999 -0.021210751)
(0 0.0022499999 -0.02131056)
(0 0.0022499999 -0.02141037)
(0 0.0022499999 -0.021510189)
(0 0.0021500001 -0.021609999)
(0 0.00205 -0.021609999)
(0 0.0019499999 -0.021609999)
(0 0.00185 -0.021609999)
(0 0.0017500001 -0.021609999)
(0 0.00165 -0.021609999)
(0 0.00155 -0.021609999)
(0 0.00145 -0.021609999)
(0 0.00135 -0.021609999)
(0 0.00125 -0.021510189)
(0 0.00125 -0.02141037)
(0 0.00125 -0.02131056)
(0 0.00125 -0.021210751)
(0 0.00125 -0.02111093)
(0 0.00125 -0.02101112)
(0 0.00125 -0.02091131)
(0 0.00125 -0.0208115)
(0 0.00125 -0.020711681)
(0 0.00125 -0.020611869)
(0 0.00125 -0.020512059)
(0 0.00125 -0.02041224)
(0 0.00125 -0.02031243)
(0 0.00125 -0.02021262)
(0 0.00125 -0.020112799)
(0 0.00125 -0.02001299)
(0 0.00125 -0.01991318)
(0 0.00125 -0.019813361)
(0 0.00125 -0.019713551)
(0 0.00125 -0.019613739)
(0 0.00125 -0.019513929)
(0 0.00125 -0.01941411)
(0 0.00125 -0.0193143)
(0 0.00125 -0.01921449)
(0 0.00125 -0.019114669)
(0 0.00125 -0.01901486)
(0 0.00125 -0.01891505)
(0 0.00125 -0.018815231)
(0 0.00125 -0.018715421)
(0 0.00125 -0.018615611)
(0 0.00125 -0.01851579)
(0 0.00125 -0.01841598)
(0 0.00125 -0.01831617)
(0 0.00125 -0.01821636)
(0 0.00125 -0.018116539)
(0 0.00125 -0.01801673)
(0 0.00125 -0.01791692)
(0 0.00125 -0.017817101)
(0 0.00125 -0.017717291)
(0 0.00125 -0.017617481)
(0 0.00125 -0.01751766)
(0 0.00125 -0.01741785)
(0 0.00125 -0.01731804)
(0 0.00125 -0.017218219)
(0 0.00125 -0.017118409)
(0 0.00125 -0.017018599)
(0 0.00125 -0.01691879)
(0 0.00125 -0.01681897)
(0 0.00125 -0.016719161)
(0 0.00125 -0.016619351)
(0 0.00125 -0.01651953)
(0 0.00125 -0.01641972)
(0 0.00125 -0.01631991)
(0 0.00125 -0.016220091)
(0 0.00125 -0.016120279)
(0 0.00125 -0.016020469)
(0 0.00125 -0.01592065)
(0 0.00125 -0.01582084)
(0 0.00125 -0.015721031)
(0 0.00125 -0.01562121)
(0 0.00125 -0.0155214)
(0 0.00125 -0.01542159)
(0 0.00125 -0.01532178)
(0 0.00125 -0.01522196)
(0 0.00125 -0.01512215)
(0 0.00125 -0.01502234)
(0 0.00125 -0.01492252)
(0 0.00125 -0.01482271)
(0 0.00125 -0.0147229)
(0 0.00125 -0.01462308)
(0 0.00125 -0.01452327)
(0 0.00125 -0.01442346)
(0 0.00125 -0.01432364)
(0 0.00125 -0.01422383)
(0 0.00125 -0.01412402)
(0 0.00125 -0.01402421)
(0 0.00125 -0.01392439)
(0 0.00125 -0.01382458)
(0 0.00125 -0.01372477)
(0 0.00125 -0.01362495)
(0 0.00125 -0.01352514)
(0 0.00125 -0.01342533)
(0 0.00125 -0.01332551)
(0 0.00125 -0.0132257)
(0 0.00125 -0.01312589)
(0 0.00125 -0.01302607)
(0 0.00125 -0.01292626)
(0 0.00125 -0.01282645)
(0 0.00125 -0.01272664)
(0 0.00125 -0.01262682)
(0 0.00125 -0.01252701)
(0 0.00125 -0.0124272)
(0 0.00125 -0.01232738)
(0 0.00125 -0.01222757)
(0 0.00125 -0.01212776)
(0 0.00125 -0.01202794)
(0 0.00125 -0.01192813)
(0 0.00125 -0.01182832)
(0 0.00125 -0.0117285)
(0 0.00125 -0.01162869)
(0 0.00125 -0.01152888)
(0 0.00125 -0.01142907)
(0 0.00125 -0.01132925)
(0 0.00125 -0.01122944)
(0 0.00125 -0.01112963)
(0 0.00125 -0.01102981)
(0 0.00125 -0.01093)
(0 0.00125 -0.01083019)
(0 0.00125 -0.01073037)
(0 0.00125 -0.01063056)
(0 0.00125 -0.01053075)
(0 0.00125 -0.01043093)
(0 0.00125 -0.01033112)
(0 0.00125 -0.01023131)
(0 0.00125 -0.0101315)
(0 0.00125 -0.01003168)
(0 0.00125 -0.0099318689)
(0 0.00125 -0.0098320562)
(0 0.00125 -0.0097322427)
(0 0.00125 -0.00963243)
(0 0.00125 -0.0095326174)
(0 0.00125 -0.0094328038)
(0 0.00125 -0.0093329912)
(0 0.00125 -0.0092331776)
(0 0.00125 -0.0091333641)
(0 0.00125 -0.0090335514)
(0 0.00125 -0.0089337379)
(0 0.00125 -0.0088339252)
(0 0.00125 -0.0087341117)
(0 0.00125 -0.008634299)
(0 0.00125 -0.0085344864)
(0 0.00125 -0.0084346728)
(0 0.00125 -0.0083348602)
(0 0.00125 -0.0082350466)
(0 0.00125 -0.008135234)
(0 0.00125 -0.0080354214)
(0 0.00125 -0.0079356069)
(0 0.00125 -0.0078357942)
(0 0.00125 -0.0077359811)
(0 0.00125 -0.007636168)
(0 0.00125 -0.0075363549)
(0 0.00125 -0.0074365418)
(0 0.00125 -0.0073367292)
(0 0.00125 -0.0072369161)
(0 0.00125 -0.007137103)
(0 0.00125 -0.0070372899)
(0 0.00125 -0.0069374768)
(0 0.00125 -0.0068376642)
(0 0.00125 -0.0067378501)
(0 0.00125 -0.006638037)
(0 0.00125 -0.0065382239)
(0 0.00125 -0.0064384108)
(0 0.00125 -0.0063385982)
(0 0.00125 -0.0062387851)
(0 0.00125 -0.006138972)
(0 0.00125 -0.0060391589)
(0 0.00125 -0.0059393458)
(0 0.00125 -0.0058395332)
(0 0.00125 -0.0057397201)
(0 0.00125 -0.005639907)
(0 0.00125 -0.0055400929)
(0 0.00125 -0.0054402798)
(0 0.00125 -0.0053404672)
(0 0.00125 -0.0052406541)
(0 0.00125 -0.005140841)
(0 0.00125 -0.0050410279)
(0 0.00125 -0.0049412148)
(0 0.00125 -0.0048414022)
(0 0.00125 -0.0047415891)
(0 0.00125 -0.004641776)
(0 0.00125 -0.0045419629)
(0 0.00125 -0.0044421498)
(0 0.00125 -0.0043423362)
(0 0.00125 -0.0042425231)
(0 0.00125 -0.00414271)
(0 0.00125 -0.0040428969)
(0 0.00125 -0.0039430838)
(0 0.00125 -0.0038432709)
(0 0.00125 -0.0037434581)
(0 0.00125 -0.003643645)
(0 0.00125 -0.0035438321)
(0 0.00125 -0.003444019)
(0 0.00125 -0.0033442059)
(0 0.00125 -0.003244393)
(0 0.00125 -0.003144579)
(0 0.00125 -0.0030447659)
(0 0.00125 -0.002944953)
(0 0.00125 -0.0028451399)
(0 0.00125 -0.0027453271)
(0 0.00125 -0.002645514)
(0 0.00125 -0.0025457011)
(0 0.00125 -0.002445888)
(0 0.00125 -0.0023460749)
(0 0.00125 -0.002246262)
(0 0.00125 -0.0021464489)
(0 0.00125 -0.0020466361)
(0 0.00125 -0.001946822)
(0 0.00125 -0.0018470091)
(0 0.00125 -0.001747196)
(0 0.00125 -0.001647383)
(0 0.00125 -0.00154757)
(0 0.00125 -0.001447757)
(0 0.00125 -0.001347944)
(0 0.00125 -0.001248131)
(0 0.00125 -0.0011483181)
(0 0.00125 -0.001048505)
(0 0.00125 -0.00094869162)
(0 0.00125 -0.00084887852)
(0 0.00125 -0.00074906542)
(0 0.00125 -0.00064925232)
(0 0.00125 -0.00054943928)
(0 0.00125 -0.00044962621)
(0 0.00125 -0.00034981311)
(0 0.00115 -0.00025000001)
(0 0.00105 -0.00025000001)
(0 0.0009499999 -0.00025000001)
(0 0.00084999989 -0.00025000001)
(0 0.00074999989 -0.00025000001)
(0 0.00064999989 -0.00025000001)
(0 0.00054999988 -0.00025000001)
(0 0.0004499999 -0.00025000001)
(0 0.0003499999 -0.00025000001)
(0 0.0002499999 -0.00034982141)
(0 0.0002499999 -0.00044964289)
(0 0.0002499999 -0.00054946431)
(0 0.0002499999 -0.00064928568)
(0 0.0002499999 -0.0007491071)
(0 0.0002499999 -0.00084892858)
(0 0.0002499999 -0.00094875001)
(0 0.0002499999 -0.001048571)
(0 0.0002499999 -0.001148393)
(0 0.0002499999 -0.001248214)
(0 0.0002499999 -0.001348036)
(0 0.0002499999 -0.001447857)
(0 0.0002499999 -0.001547679)
(0 0.0002499999 -0.0016475)
(0 0.0002499999 -0.001747321)
(0 0.0002499999 -0.0018471431)
(0 0.0002499999 -0.001946964)
(0 0.0002499999 -0.002046786)
(0 0.0002499999 -0.002146607)
(0 0.0002499999 -0.002246429)
(0 0.0002499999 -0.00234625)
(0 0.0002499999 -0.002446071)
(0 0.0002499999 -0.002545893)
(0 0.0002499999 -0.002645714)
(0 0.0002499999 -0.0027455359)
(0 0.0002499999 -0.0028453569)
(0 0.0002499999 -0.0029451789)
(0 0.0002499999 -0.0030449999)
(0 0.0002499999 -0.0031448209)
(0 0.0002499999 -0.0032446431)
(0 0.0002499999 -0.0033444641)
(0 0.0002499999 -0.0034442861)
(0 0.0002499999 -0.0035441071)
(0 0.0002499999 -0.003643929)
(0 0.0002499999 -0.00374375)
(0 0.0002499999 -0.0038435711)
(0 0.0002499999 -0.003943393)
(0 0.0002499999 -0.004043214)
(0 0.0002499999 -0.004143036)
(0 0.0002499999 -0.004242857)
(0 0.0002499999 -0.0043426789)
(0 0.0002499999 -0.0044425)
(0 0.0002499999 -0.004542321)
(0 0.0002499999 -0.0046421429)
(0 0.0002499999 -0.0047419639)
(0 0.0002499999 -0.0048417859)
(0 0.0002499999 -0.0049416069)
(0 0.0002499999 -0.0050414288)
(0 0.0002499999 -0.0051412499)
(0 0.0002499999 -0.0052410709)
(0 0.0002499999 -0.0053408928)
(0 0.0002499999 -0.0054407138)
(0 0.0002499999 -0.0055405358)
(0 0.0002499999 -0.0056403568)
(0 0.0002499999 -0.0057401792)
(0 0.0002499999 -0.0058400002)
(0 0.0002499999 -0.0059398208)
(0 0.0002499999 -0.0060396432)
(0 0.0002499999 -0.0061394642)
(0 0.0002499999 -0.0062392862)
(0 0.0002499999 -0.0063391072)
(0 0.0002499999 -0.0064389291)
(0 0.0002499999 -0.0065387501)
(0 0.0002499999 -0.0066385712)
(0 0.0002499999 -0.0067383931)
(0 0.0002499999 -0.0068382141)
(0 0.0002499999 -0.0069380361)
(0 0.0002499999 -0.0070378571)
(0 0.0002499999 -0.007137679)
(0 0.0002499999 -0.0072375)
(0 0.0002499999 -0.0073373211)
(0 0.0002499999 -0.007437143)
(0 0.0002499999 -0.007536964)
(0 0.0002499999 -0.007636786)
(0 0.0002499999 -0.007736607)
(0 0.0002499999 -0.0078364294)
(0 0.0002499999 -0.0079362504)
(0 0.0002499999 -0.0080360714)
(0 0.0002499999 -0.0081358934)
(0 0.0002499999 -0.0082357144)
(0 0.0002499999 -0.0083355363)
(0 0.0002499999 -0.0084353574)
(0 0.0002499999 -0.0085351793)
(0 0.0002499999 -0.0086350003)
(0 0.0002499999 -0.0087348213)
(0 0.0002499999 -0.0088346433)
(0 0.0002499999 -0.0089344643)
(0 0.0002499999 -0.0090342863)
(0 0.0002499999 -0.0091341073)
(0 0.0002499999 -0.0092339292)
(0 0.0002499999 -0.0093337502)
(0 0.0002499999 -0.0094335712)
(0 0.0002499999 -0.0095333932)
(0 0.0002499999 -0.0096332142)
(0 0.0002499999 -0.0097330362)
(0 0.0002499999 -0.0098328572)
(0 0.0002499999 -0.0099326791)
(0 0.0002499999 -0.0100325)
(0 0.0002499999 -0.01013232)
(0 0.0002499999 -0.01023214)
(0 0.0002499999 -0.01033196)
(0 0.0002499999 -0.01043179)
(0 0.0002499999 -0.01053161)
(0 0.0002499999 -0.01063143)
(0 0.0002499999 -0.01073125)
(0 0.0002499999 -0.01083107)
(0 0.0002499999 -0.01093089)
(0 0.0002499999 -0.01103071)
(0 0.0002499999 -0.01113054)
(0 0.0002499999 -0.01123036)
(0 0.0002499999 -0.01133018)
(0 0.0002499999 -0.01143)
(0 0.0002499999 -0.01152982)
(0 0.0002499999 -0.01162964)
(0 0.0002499999 -0.01172946)
(0 0.0002499999 -0.01182929)
(0 0.0002499999 -0.01192911)
(0 0.0002499999 -0.01202893)
(0 0.0002499999 -0.01212875)
(0 0.0002499999 -0.01222857)
(0 0.0002499999 -0.01232839)
(0 0.0002499999 -0.01242821)
(0 0.0002499999 -0.01252804)
(0 0.0002499999 -0.01262786)
(0 0.0002499999 -0.01272768)
(0 0.0002499999 -0.0128275)
(0 0.0002499999 -0.01292732)
(0 0.0002499999 -0.01302714)
(0 0.0002499999 -0.01312696)
(0 0.0002499999 -0.01322679)
(0 0.0002499999 -0.01332661)
(0 0.0002499999 -0.01342643)
(0 0.0002499999 -0.01352625)
(0 0.0002499999 -0.01362607)
(0 0.0002499999 -0.01372589)
(0 0.0002499999 -0.01382571)
(0 0.0002499999 -0.01392554)
(0 0.0002499999 -0.01402536)
(0 0.0002499999 -0.01412518)
(0 0.0002499999 -0.014225)
(0 0.0002499999 -0.01432482)
(0 0.0002499999 -0.01442464)
(0 0.0002499999 -0.01452446)
(0 0.0002499999 -0.01462429)
(0 0.0002499999 -0.01472411)
(0 0.0002499999 -0.01482393)
(0 0.0002499999 -0.01492375)
(0 0.0002499999 -0.01502357)
(0 0.0002499999 -0.01512339)
(0 0.0002499999 -0.01522321)
(0 0.0002499999 -0.01532304)
(0 0.0002499999 -0.01542286)
(0 0.0002499999 -0.01552268)
(0 0.0002499999 -0.0156225)
(0 0.0002499999 -0.015722319)
(0 0.0002499999 -0.01582214)
(0 0.0002499999 -0.01592196)
(0 0.0002499999 -0.01602179)
(0 0.0002499999 -0.016121609)
(0 0.0002499999 -0.01622143)
(0 0.0002499999 -0.016321249)
(0 0.0002499999 -0.01642107)
(0 0.0002499999 -0.016520889)
(0 0.0002499999 -0.01662071)
(0 0.0002499999 -0.016720541)
(0 0.0002499999 -0.01682036)
(0 0.0002499999 -0.016920179)
(0 0.0002499999 -0.01702)
(0 0.0002499999 -0.017119819)
(0 0.0002499999 -0.01721964)
(0 0.0002499999 -0.017319459)
(0 0.0002499999 -0.01741929)
(0 0.0002499999 -0.017519111)
(0 0.0002499999 -0.01761893)
(0 0.0002499999 -0.017718749)
(0 0.0002499999 -0.01781857)
(0 0.0002499999 -0.017918389)
(0 0.0002499999 -0.01801821)
(0 0.0002499999 -0.018118041)
(0 0.0002499999 -0.01821786)
(0 0.0002499999 -0.018317681)
(0 0.0002499999 -0.0184175)
(0 0.0002499999 -0.018517319)
(0 0.0002499999 -0.01861714)
(0 0.0002499999 -0.018716959)
(0 0.0002499999 -0.01881679)
(0 0.0002499999 -0.018916611)
(0 0.0002499999 -0.01901643)
(0 0.0002499999 -0.019116251)
(0 0.0002499999 -0.01921607)
(0 0.0002499999 -0.019315889)
(0 0.0002499999 -0.01941571)
(0 0.0002499999 -0.01951554)
(0 0.0002499999 -0.01961536)
(0 0.0002499999 -0.019715181)
(0 0.0002499999 -0.019815)
(0 0.0002499999 -0.019914821)
(0 0.0002499999 -0.02001464)
(0 0.0002499999 -0.020114459)
(0 0.0002499999 -0.020214289)
(0 0.0002499999 -0.02031411)
(0 0.0002499999 -0.02041393)
(0 0.0002499999 -0.020513751)
(0 0.0002499999 -0.02061357)
(0 0.0002499999 -0.020713391)
(0 0.0002499999 -0.02081321)
(0 0.0002499999 -0.02091304)
(0 0.0002499999 -0.021012859)
(0 0.0002499999 -0.02111268)
(0 0.0002499999 -0.0212125)
(0 0.0002499999 -0.021312321)
(0 0.0002499999 -0.02141214)
(0 0.0002499999 -0.021511961)
(0 0.0002499999 -0.021611789)
(0 0.0002499999 -0.02171161)
(0 0.0002499999 -0.021811429)
(0 0.0002499999 -0.02191125)
(0 0.0002499999 -0.02201107)
(0 0.0002499999 -0.022110891)
(0 0.0002499999 -0.02221071)
(0 0.0002499999 -0.02231054)
(0 0.0002499999 -0.022410359)
(0 0.0002499999 -0.02251018)
(0 0.0003499999 -0.022609999)
(0 0.0004499999 -0.022609999)
(0 0.00054999988 -0.022609999)
(0 0.00064999989 -0.022609999)
(0 0.00074999989 -0.022609999)
(0 0.00084999989 -0.022609999)
(0 0.0009499999 -0.022609999)
(0 0.00105 -0.022609999)
(0 0.00115 -0.022609999)
(0 0.00125 -0.022609999)
(0 0.00135 -0.022609999)
(0 0.00145 -0.022609999)
(0 0.00155 -0.022609999)
(0 0.00165 -0.022609999)
(0 0.0017500001 -0.022609999)
(0 0.00185 -0.022609999)
(0 0.0019499999 -0.022609999)
(0 0.00205 -0.022609999)
(0 0.0021500001 -0.022609999)
(0 0.0022499999 -0.022609999)
(0 0.00235 -0.022609999)
(0 0.00245 -0.022609999)
(0 0.0025500001 -0.022609999)
(0 0.0026499999 -0.022609999)
(0 0.00275 -0.022609999)
(0 0.00285 -0.022609999)
(0 0.0029500001 -0.022609999)
(0 0.0030499999 -0.022609999)
(0 0.00315 -0.022609999)
(0 0.0032500001 -0.02251019)
(0 0.0032500001 -0.02241037)
(0 0.0032500001 -0.022310561)
(0 0.0032500001 -0.022210751)
(0 0.0032500001 -0.02211093)
(0 0.0032500001 -0.02201112)
(0 0.0032500001 -0.02191131)
(0 0.0032500001 -0.0218115)
(0 0.0032500001 -0.021711679)
(0 0.0032500001 -0.021611869)
(0 0.0032500001 -0.021512059)
(0 0.0032500001 -0.02141224)
(0 0.0032500001 -0.021312431)
(0 0.0032500001 -0.021212621)
(0 0.0032500001 -0.0211128)
(0 0.0032500001 -0.02101299)
(0 0.0032500001 -0.02091318)
(0 0.0032500001 -0.020813361)
(0 0.0032500001 -0.020713549)
(0 0.0032500001 -0.020613739)
(0 0.0032500001 -0.020513929)
(0 0.0032500001 -0.02041411)
(0 0.0032500001 -0.0203143)
(0 0.0032500001 -0.020214491)
(0 0.0032500001 -0.02011467)
(0 0.0032500001 -0.02001486)
(0 0.0032500001 -0.01991505)
(0 0.0032500001 -0.019815231)
(0 0.0032500001 -0.019715421)
(0 0.0032500001 -0.019615609)
(0 0.0032500001 -0.01951579)
(0 0.0032500001 -0.01941598)
(0 0.0032500001 -0.01931617)
(0 0.0032500001 -0.019216361)
(0 0.0032500001 -0.01911654)
(0 0.0032500001 -0.01901673)
(0 0.0032500001 -0.01891692)
(0 0.0032500001 -0.018817101)
(0 0.0032500001 -0.018717291)
(0 0.0032500001 -0.018617479)
(0 0.0032500001 -0.01851766)
(0 0.0032500001 -0.01841785)
(0 0.0032500001 -0.01831804)
(0 0.0032500001 -0.018218219)
(0 0.0032500001 -0.018118409)
(0 0.0032500001 -0.0180186)
(0 0.0032500001 -0.01791879)
(0 0.0032500001 -0.017818971)
(0 0.0032500001 -0.017719161)
(0 0.0032500001 -0.017619351)
(0 0.0032500001 -0.01751953)
(0 0.0032500001 -0.01741972)
(0 0.0032500001 -0.01731991)
(0 0.0032500001 -0.017220089)
(0 0.0032500001 -0.017120279)
(0 0.0032500001 -0.01702047)
(0 0.0032500001 -0.01692065)
(0 0.0032500001 -0.016820841)
(0 0.0032500001 -0.016721031)
(0 0.0032500001 -0.01662121)
(0 0.0032500001 -0.0165214)
(0 0.0032500001 -0.01642159)
(0 0.0032500001 -0.01632178)
(0 0.0032500001 -0.016221959)
(0 0.0032500001 -0.016122149)
(0 0.0032500001 -0.016022339)
(0 0.0032500001 -0.01592252)
(0 0.0032500001 -0.01582271)
(0 0.0032500001 -0.015722901)
(0 0.0032500001 -0.01562308)
(0 0.0032500001 -0.01552327)
(0 0.0032500001 -0.01542346)
(0 0.0032500001 -0.01532364)
(0 0.0032500001 -0.01522383)
(0 0.0032500001 -0.01512402)
(0 0.0032500001 -0.01502421)
(0 0.0032500001 -0.01492439)
(0 0.0032500001 -0.01482458)
(0 0.0032500001 -0.01472477)
(0 0.0032500001 -0.01462495)
(0 0.0032500001 -0.01452514)
(0 0.0032500001 -0.01442533)
(0 0.0032500001 -0.01432551)
(0 0.0032500001 -0.0142257)
(0 0.0032500001 -0.01412589)
(0 0.0032500001 -0.01402607)
(0 0.0032500001 -0.01392626)
(0 0.0032500001 -0.01382645)
(0 0.0032500001 -0.01372664)
(0 0.0032500001 -0.01362682)
(0 0.0032500001 -0.01352701)
(0 0.0032500001 -0.0134272)
(0 0.0032500001 -0.01332738)
(0 0.0032500001 -0.01322757)
(0 0.0032500001 -0.01312776)
(0 0.0032500001 -0.01302794)
(0 0.0032500001 -0.01292813)
(0 0.0032500001 -0.01282832)
(0 0.0032500001 -0.0127285)
(0 0.0032500001 -0.01262869)
(0 0.0032500001 -0.01252888)
(0 0.0032500001 -0.01242907)
(0 0.0032500001 -0.01232925)
(0 0.0032500001 -0.01222944)
(0 0.0032500001 -0.01212963)
(0 0.0032500001 -0.01202981)
(0 0.0032500001 -0.01193)
(0 0.0032500001 -0.01183019)
(0 0.0032500001 -0.01173037)
(0 0.0032500001 -0.01163056)
(0 0.0032500001 -0.01153075)
(0 0.0032500001 -0.01143093)
(0 0.0032500001 -0.01133112)
(0 0.0032500001 -0.01123131)
(0 0.0032500001 -0.0111315)
(0 0.0032500001 -0.01103168)
(0 0.0032500001 -0.01093187)
(0 0.0032500001 -0.01083206)
(0 0.0032500001 -0.01073224)
(0 0.0032500001 -0.01063243)
(0 0.0032500001 -0.01053262)
(0 0.0032500001 -0.0104328)
(0 0.0032500001 -0.01033299)
(0 0.0032500001 -0.01023318)
(0 0.0032500001 -0.01013336)
(0 0.0032500001 -0.01003355)
(0 0.0032500001 -0.009933738)
(0 0.0032500001 -0.0098339254)
(0 0.0032500001 -0.0097341118)
(0 0.0032500001 -0.0096342992)
(0 0.0032500001 -0.0095344856)
(0 0.0032500001 -0.009434673)
(0 0.0032500001 -0.0093348604)
(0 0.0032500001 -0.0092350468)
(0 0.0032500001 -0.0091352342)
(0 0.0032500001 -0.0090354206)
(0 0.0032500001 -0.008935607)
(0 0.0032500001 -0.0088357944)
(0 0.0032500001 -0.0087359808)
(0 0.0032500001 -0.0086361682)
(0 0.0032500001 -0.0085363546)
(0 0.0032500001 -0.008436542)
(0 0.0032500001 -0.0083367294)
(0 0.0032500001 -0.0082369158)
(0 0.0032500001 -0.0081371032)
(0 0.0032500001 -0.0080372896)
(0 0.0032500001 -0.007937477)
(0 0.0032500001 -0.0078376643)
(0 0.0032500001 -0.0077378498)
(0 0.0032500001 -0.0076380372)
(0 0.0032500001 -0.0075382241)
(0 0.0032500001 -0.007438411)
(0 0.0032500001 -0.0073385979)
(0 0.0032500001 -0.0072387848)
(0 0.0032500001 -0.0071389722)
(0 0.0032500001 -0.0070391591)
(0 0.0032500001 -0.006939346)
(0 0.0032500001 -0.0068395329)
(0 0.0032500001 -0.0067397198)
(0 0.0032500001 -0.0066399071)
(0 0.0032500001 -0.0065400931)
(0 0.0032500001 -0.00644028)
(0 0.0032500001 -0.0063404669)
(0 0.0032500001 -0.0062406538)
(0 0.0032500001 -0.0061408412)
(0 0.0032500001 -0.0060410281)
(0 0.0032500001 -0.005941215)
(0 0.0032500001 -0.0058414019)
(0 0.0032500001 -0.0057415888)
(0 0.0032500001 -0.0056417761)
(0 0.0032500001 -0.005541963)
(0 0.0032500001 -0.0054421499)
(0 0.0032500001 -0.0053423359)
(0 0.0032500001 -0.0052425228)
(0 0.0032500001 -0.0051427102)
(0 0.0032500001 -0.0050428971)
(0 0.0032500001 -0.004943084)
(0 0.0032500001 -0.0048432709)
(0 0.0032500001 -0.0047434578)
(0 0.0032500001 -0.0046436451)
(0 0.0032500001 -0.004543832)
(0 0.0032500001 -0.0044440189)
(0 0.0032500001 -0.0043442058)
(0 0.0032500001 -0.0042443932)
(0 0.0032500001 -0.0041445792)
(0 0.0032500001 -0.0040447661)
(0 0.0032500001 -0.003944953)
(0 0.0032500001 -0.0038451401)
(0 0.0032500001 -0.003745327)
(0 0.0032500001 -0.0036455139)
(0 0.0032500001 -0.003545701)
(0 0.0032500001 -0.0034458879)
(0 0.0032500001 -0.0033460751)
(0 0.0032500001 -0.003246262)
(0 0.0032500001 -0.0031464491)
(0 0.0032500001 -0.003046636)
(0 0.0032500001 -0.002946822)
(0 0.0032500001 -0.0028470091)
(0 0.0032500001 -0.002747196)
(0 0.0032500001 -0.0026473829)
(0 0.0032500001 -0.00254757)
(0 0.0032500001 -0.0024477569)
(0 0.0032500001 -0.0023479441)
(0 0.0032500001 -0.002248131)
(0 0.0032500001 -0.0021483181)
(0 0.0032500001 -0.002048505)
(0 0.0032500001 -0.001948692)
(0 0.0032500001 -0.001848879)
(0 0.0032500001 -0.001749065)
(0 0.0032500001 -0.001649252)
(0 0.0032500001 -0.001549439)
(0 0.0032500001 -0.0014496261)
(0 0.0032500001 -0.001349813)
(0 0.0033499999 -0.00125)
(0 0.00345 -0.00125)
(0 0.00355 -0.00125)
(0 0.0036500001 -0.00125)
(0 0.0037499999 -0.00125)
(0 0.00385 -0.00125)
(0 0.0039499998 -0.00125)
(0 0.0040500001 -0.00125)
(0 0.0041499999 -0.00125)
(0 0.0042500002 -0.001349813)
(0 0.0042500002 -0.0014496261)
(0 0.0042500002 -0.001549439)
(0 0.0042500002 -0.001649252)
(0 0.0042500002 -0.001749065)
(0 0.0042500002 -0.001848879)
(0 0.0042500002 -0.001948692)
(0 0.0042500002 -0.002048505)
(0 0.0042500002 -0.0021483181)
(0 0.0042500002 -0.002248131)
(0 0.0042500002 -0.0023479441)
(0 0.0042500002 -0.0024477569)
(0 0.0042500002 -0.00254757)
(0 0.0042500002 -0.0026473829)
(0 0.0042500002 -0.002747196)
(0 0.0042500002 -0.0028470091)
(0 0.0042500002 -0.002946822)
(0 0.0042500002 -0.003046636)
(0 0.0042500002 -0.0031464491)
(0 0.0042500002 -0.003246262)
(0 0.0042500002 -0.0033460751)
(0 0.0042500002 -0.0034458879)
(0 0.0042500002 -0.003545701)
(0 0.0042500002 -0.0036455139)
(0 0.0042500002 -0.003745327)
(0 0.0042500002 -0.0038451401)
(0 0.0042500002 -0.003944953)
(0 0.0042500002 -0.0040447661)
(0 0.0042500002 -0.0041445792)
(0 0.0042500002 -0.0042443932)
(0 0.0042500002 -0.0043442058)
(0 0.0042500002 -0.0044440189)
(0 0.0042500002 -0.004543832)
(0 0.0042500002 -0.0046436451)
(0 0.0042500002 -0.0047434578)
(0 0.0042500002 -0.0048432709)
(0 0.0042500002 -0.004943084)
(0 0.0042500002 -0.0050428971)
(0 0.0042500002 -0.0051427102)
(0 0.0042500002 -0.0052425228)
(0 0.0042500002 -0.0053423359)
(0 0.0042500002 -0.0054421499)
(0 0.0042500002 -0.005541963)
(0 0.0042500002 -0.0056417761)
(0 0.0042500002 -0.0057415888)
(0 0.0042500002 -0.0058414019)
(0 0.0042500002 -0.005941215)
(0 0.0042500002 -0.0060410281)
(0 0.0042500002 -0.0061408412)
(0 0.0042500002 -0.0062406538)
(0 0.0042500002 -0.0063404669)
(0 0.0042500002 -0.00644028)
(0 0.0042500002 -0.0065400931)
(0 0.0042500002 -0.0066399071)
(0 0.0042500002 -0.0067397198)
(0 0.0042500002 -0.0068395329)
(0 0.0042500002 -0.006939346)
(0 0.0042500002 -0.0070391591)
(0 0.0042500002 -0.0071389722)
(0 0.0042500002 -0.0072387848)
(0 0.0042500002 -0.0073385979)
(0 0.0042500002 -0.007438411)
(0 0.0042500002 -0.0075382241)
(0 0.0042500002 -0.0076380372)
(0 0.0042500002 -0.0077378498)
(0 0.0042500002 -0.0078376643)
(0 0.0042500002 -0.007937477)
(0 0.0042500002 -0.0080372896)
(0 0.0042500002 -0.0081371032)
(0 0.0042500002 -0.0082369158)
(0 0.0042500002 -0.0083367294)
(0 0.0042500002 -0.008436542)
(0 0.0042500002 -0.0085363546)
(0 0.0042500002 -0.0086361682)
(0 0.0042500002 -0.0087359808)
(0 0.0042500002 -0.0088357944)
(0 0.0042500002 -0.008935607)
(0 0.0042500002 -0.0090354206)
(0 0.0042500002 -0.0091352342)